RepresentativeLVNetworks-0.2.0/data/F/Lines.dss
New Line.line0 Units=km Length=0.02268 bus1=41.1.2.3 bus2=42.1.2.3 switch=n enabled=y phases=3 Linecode=415V_185CU4_P_L_*_3
New Line.line1 Units=km Length=0.040369999999999996 bus1=42.1.2.3 bus2=43.1.2.3 switch=n enabled=y phases=3 Linecode=415V_185CU4_P_L_*_3
New Line.line10 Units=km Length=0.044360000000000004 bus1=49.1.2.3 bus2=50.1.2.3 switch=n enabled=y phases=3 Linecode=415V_185CU4_P_L_*_3
New Line.line11 Units=km Length=0.04036 bus1=50.1.2.3 bus2=143.1.2.3 switch=n enabled=y phases=3 Linecode=415V_185CU4_P_L_*_3
New Line.line12 Units=km Length=0.03836 bus1=48.1.2.3 bus2=51.1.2.3 switch=n enabled=y phases=3 Linecode=240AL_3
New Line.line13 Units=km Length=0.001 bus1=51.1.2.3 bus2=144.1.2.3 switch=n enabled=y phases=3 Linecode=240AL_3
New Line.line14 Units=km Length=0.032909999999999995 bus1=51.1.2.3 bus2=145.1.2.3 switch=n enabled=y phases=3 Linecode=240AL_3
New Line.line2 Units=km Length=0.06529 bus1=43.1.2.3 bus2=44.1.2.3 switch=n enabled=y phases=3 Linecode=415V_185CU4_P_L_*_3
New Line.line3 Units=km Length=0.03218 bus1=44.1.2.3 bus2=45.1.2.3 switch=n enabled=y phases=3 Linecode=415V_185CU4_P_L_*_3
New Line.line4 Units=km Length=0.039240000000000004 bus1=45.1.2.3 bus2=46.1.2.3 switch=n enabled=y phases=3 Linecode=415V_185CU4_P_L_*_3
New Line.line5 Units=km Length=0.051840000000000004 bus1=46.1.2.3 bus2=47.1.2.3 switch=n enabled=y phases=3 Linecode=415V_185CU4_P_L_*_3
New Line.line6 Units=km Length=0.05878 bus1=47.1.2.3 bus2=48.1.2.3 switch=n enabled=y phases=3 Linecode=240AL_3
New Line.line7 Units=km Length=0.03102 bus1=48.1.2.3 bus2=141.1.2.3 switch=n enabled=y phases=3 Linecode=240AL_3
New Line.line8 Units=km Length=0.040299999999999996 bus1=42.1.2.3 bus2=142.1.2.3 switch=n enabled=y phases=3 Linecode=415V_185CU4_P_L_*_3
New Line.line9 Units=km Length=0.03178 bus1=45.1.2.3 bus2=49.1.2.3 switch=n enabled=y phases=3 Linecode=415V_185CU4_P_L_*_3
